LTspice 24.1.4 for Windows
Circuit: C:\Users\ASUS\OneDrive\Documentos\LTspice\Proyectos\Draft2.net
Start Time: Fri Apr 25 23:00:33 2025
solver = Normal
Maximum thread count: 16
tnom = 27
temp = 27
method = trap
Direct Newton iteration for .op point succeeded.
Total elapsed time: 0.288 seconds.

Files loaded:
C:\Users\ASUS\OneDrive\Documentos\LTspice\Proyectos\Draft2.net
C:\Users\ASUS\AppData\Local\LTspice\lib\sub\MAX4239.lib

